-------------------------------------------------------
          Amber 10 SANDER                              2008
          -------------------------------------------------------

  [-O]verwriting output

File Assignments:

 Here is the input file:

[pmemd]
&cntrl
 imin=0,

 nstlim=30000,
 dt=0.001,

 ntpr=500,
 ntwx=500,
 ntwr=500,

 ntf=2,
 ntb=0,
 cut=999,
 igb=5,

 tempi=5.0,
 temp0=300.0,
 ntt=3,
 gamma_ln=2.0,

 ntc=2,
&end

{PMFLIB}
[umbrella]
fmode       1

[monitoring]
fmode       1
fsample     500

{CVS}
[MDIS]
name  md1
beta 1.0
pair @8 @98
pair @8 @116
pair @26 @116
pair @26 @134
pair @44 @134
pair @44 @152
pair @62 @152
pair @62 @170
pair @80 @170
pair @80 @188
pair @98 @188

pair @2  @92
pair @2  @110
pair @20 @110
pair @20 @128
pair @38 @128
pair @38 @146
pair @56 @146
pair @56 @164
pair @74 @164
pair @74 @182
pair @92 @182

{MONITORING}
[CV]
name md1

{RESTRAINTS}
[CV]
name md1
force_constant 50.0
value      12.8
change_to  18.0

--------------------------------------------------------------------------------
   1.  RESOURCE   USE:
--------------------------------------------------------------------------------

 NATOM  =     198 NTYPES =       5 NBONH =      66 MBONA  =     165
 NTHETH =     176 MTHETA =     286 NPHIH =     319 MPHIA  =     638
 NHPARM =       0 NPARM  =       0 NNB   =    1396 NRES   =      11
 NBONA  =     165 NTHETA =     286 NPHIA =     638 NUMBND =       5
 NUMANG =       9 NPTRA  =       8 NATYP =       5 NPHB   =       0
 IFBOX  =       0 NMXRS  =      18 IFCAP =       0 NEXTRA =       0
 NCOPY  =       0

 Implicit solvent radii are modified Bondi radii (mbondi)
--------------------------------------------------------------------------------
   2.  CONTROL  DATA  FOR  THE  RUN
--------------------------------------------------------------------------------

General flags:
     imin    =       0, nmropt  =       0

Nature and format of input:
     ntx     =       1, irest   =       0, ntrx    =       1

Nature and format of output:
     ntxo    =       1, ntpr    =     500, ntrx    =       1, ntwr    =     500
     iwrap   =       0, ntwx    =     500, ntwv    =       0, ntwe    =       0
     ioutfm  =       0, ntwprt  =       0, idecomp =       0, rbornstat=      0

Potential function:
     ntf     =       2, ntb     =       0, igb     =       5, nsnb    =      25
     ipol    =       0, gbsa    =       0, iesp    =       0
     dielc   =   1.00000, cut     = 999.00000, intdiel =   1.00000
     saltcon =   0.00000, offset  =   0.09000, gbalpha=    1.00000
     gbbeta  =   0.80000, gbgamma =   4.85100, surften =   0.00500
     rdt     =   0.00000, rgbmax  =  25.00000  extdiel =  78.50000
     alpb  =        0
     scnb    =   2.00000, scee    =   1.20000

Frozen or restrained atoms:
     ibelly  =       0, ntr     =       0

Molecular dynamics:
     nstlim  =     30000, nscm    =      1000, nrespa  =         1
     t       =   0.00000, dt      =   0.00100, vlimit  =  20.00000

Langevin dynamics temperature regulation:
     ig      =   71277
     temp0   = 300.00000, tempi   =   5.00000, gamma_ln=   2.00000

SHAKE:
     ntc     =       2, jfastw  =       0
     tol     =   0.00001

--------------------------------------------------------------------------------
   3.  ATOMIC COORDINATES AND VELOCITIES
--------------------------------------------------------------------------------

 begin time read from input coords =     0.000 ps

#==============================================================================#
# PMFLib - Potential of Mean Force Toolkit                                     #
# -----------------------------------------------------------------------------#
# Authors: (c) 2009 Petr Kulhanek (NCBR)                                       #
#          (c) 2008 Petr Kulhanek (IE), Letif Mones (IE)                       #
#          (c) 2007 Petr Kulhanek (IE), Martin Petrek (NCBR), Letif Mones (IE) #
#          (c) 2006 Petr Kulhanek (NCBR), Martin Petrek (NCBR)                 #
#          (c) 2005 Petr Kulhanek (NCBR)                                       #
#                                                                              #
# IE  : Institute of Enzymology, Hungarian Academy of Science, HU              #
# NCBR: National Centre for Biomolecular Research, Masaryk University, CZ      #
#                                                                              #
# Licence: Lesser GPL v2.1                                                     #
#==============================================================================#
#
# PMFLib version        : PMFLib 4.0.1 (2010-03-06)
# Driver                : PMEMD
# Total number of atoms : 198
# Temperature           : 300.0 K
# Time step             : 1.000 fs
# Number of steps       : 30000
# System type           : NT
# Box type              : isolated system

----------------------------- Reading control file -----------------------------
Control file name : prod.in

:::::::::::::::::::::::::::::::::::: {MAIN} ::::::::::::::::::::::::::::::::::::

--- [pmemd] --------------------------------------------------------------------
 >> pmemd section is discarded ...

::::::::::::::::::::::::::::::::::: {PMFLIB} :::::::::::::::::::::::::::::::::::

--- [pmflib] --------------------------------------------------------------------
fdebug                                 =                           off (default)
fverbose_mask                          =                           off (default)

--- [abf] ----------------------------------------------------------------------
 >> Adaptive biasing force method is disabled!

--- [blue_moon] ----------------------------------------------------------------
 >> Blue moon method is disabled!

--- [monitoring] ---------------------------------------------------------------
fmode                                  =            1
fsample                                =          500
fplevel                                =            0                  (default)

--- [metadyn] ------------------------------------------------------------------
 >> Metadynamics is disabled!

--- [remd] ---------------------------------------------------------------------
 >> Replica exchange molecular dynamics is disabled!

--- [umbrella] -----------------------------------------------------------------
fmode                                  =            1
fsample                                =          500                  (default)
fplevel                                =            0                  (default)

--- [string-beat] --------------------------------------------------------------
 >> String method is disabled!

--- [files] --------------------------------------------------------------------
fcvsdef                                =                         {CVS} (default)
fmondef                                =                  {MONITORING} (default)
fmonout                                =                      _mon.out (default)
fresdef                                =                  {RESTRAINTS} (default)
fresout                                =                      _res.out (default)
fresrst                                =                      _res.rst (default)

:::::::::::::::::::::::::::::::::::: {CVS} :::::::::::::::::::::::::::::::::::::

Collective variables are read from group: CVS
Number of collective variables :  1

== Reading collective variable #01 of type "MDIS"
   Collective variable name : md1
   ** beta               :  1.00
   ** atom pair          :         @8 <->        @98
   ** atom pair          :         @8 <->       @116
   ** atom pair          :        @26 <->       @116
   ** atom pair          :        @26 <->       @134
   ** atom pair          :        @44 <->       @134
   ** atom pair          :        @44 <->       @152
   ** atom pair          :        @62 <->       @152
   ** atom pair          :        @62 <->       @170
   ** atom pair          :        @80 <->       @170
   ** atom pair          :        @80 <->       @188
   ** atom pair          :        @98 <->       @188
   ** atom pair          :         @2 <->        @92
   ** atom pair          :         @2 <->       @110
   ** atom pair          :        @20 <->       @110
   ** atom pair          :        @20 <->       @128
   ** atom pair          :        @38 <->       @128
   ** atom pair          :        @38 <->       @146
   ** atom pair          :        @56 <->       @146
   ** atom pair          :        @56 <->       @164
   ** atom pair          :        @74 <->       @164
   ** atom pair          :        @74 <->       @182
   ** atom pair          :        @92 <->       @182

::::::::::::::::::::::::::::::::: {MONITORING} :::::::::::::::::::::::::::::::::

Collective variables are read from group: MONITORING
Number of collective variables :  1

== Reading collective variable #01
   Collective variable name : md1

::::::::::::::::::::::::::::::::: {RESTRAINTS} :::::::::::::::::::::::::::::::::

Restraints are read from group: RESTRAINTS
Number of restraints :  1

== Reading restraint variable #01
   Collective variable name : md1
   ** Value          :       12.800000
   ** Force constant :       50.000000
   ** Change to      :       18.000000

:::::::::::::::::::::::::::::::::::: {END} :::::::::::::::::::::::::::::::::::::

 Number of triangulated 3-point waters found:        0
Number of collective variables :      1
Number of atoms involved       :     22

================================================================================
 ******************* COLLECTIVE VARIABLE MONITORING METHOD ********************
================================================================================

 MONITORING Mode
 ------------------------------------------------------
 MONITORING mode (fmode)                 :      1
 Number of collective variables          :      1
 CV definition file (fmondef)            : {MONITORING}

 Output options:
 ------------------------------------------------------
 Output file (fmonout)                   : _mon.out
 Output sampling (fsample)               :    500
 Print level (fplevel)                   :      0

 List of MONITORING collective variables
 -------------------------------------------------------

 == Collective variable #01
    ** Name          : md1
    ** Current value :    0.9660479E+01

================================================================================

================================================================================
 *********** FREE ENERGY CALCULATION BY UMBRELLA SAMPLING APPROACH ************
================================================================================

 Cartesian Restraint Dynamics Mode
 ------------------------------------------------------
 Umbrella sampling method mode (fmode)   :      1
 Number of restraints                    :      1
 Restraint definition file (fresdef)     : {RESTRAINTS}

 Output options:
 ------------------------------------------------------
 Output file (fresout)                   : _res.out
 Sample period (fsample)                 :    500
 Print level (fplevel)                   :      0

 String method options:
 ------------------------------------------------------
 Server communication is                 : off
 Server URL (fserver)                    : none
 Server password (fpassword)             : none

 List of restraints
 -------------------------------------------------------

 == Restraint name #01
    Collective variable name : md1
    ** Restraining mode :  V (change to value)
    ** Current value    :  0.966047942E+01 [A]
    ** Start value      :  0.128000000E+02 [A]
    ** Deviation        : -0.313952058E+01 [A]
    ** Force constant   :  0.500000000E+02 [kcal/mol/A]
    ** Increment value  :  0.520000000E+01 [A]
    ** Start value      :  0.180000000E+02 [A]

================================================================================

--------------------------------------------------------------------------------
   4.  RESULTS
 NSTEP =        0   TIME(PS) =       0.000  TEMP(K) =     5.34  PRESS =     0.0
 Etot   =       748.7518  EKtot   =         2.8024  EPtot      =       745.9494
 BOND   =        54.7332  ANGLE   =       295.7275  DIHED      =       128.4090
 1-4 NB =        11.1737  1-4 EEL =       983.9358  VDWAALS    =       -64.2958
 EELEC  =      -508.1302  EGB     =      -155.6037  RESTRAINT  =         0.0000
 ------------------------------------------------------------------------------

      A V E R A G E S   O V E R   30000 S T E P S

 NSTEP =    30000   TIME(PS) =      30.000  TEMP(K) =   301.98  PRESS =     0.0
 Etot   =       926.6801  EKtot   =       158.4256  EPtot      =       768.2545
 BOND   =        64.5766  ANGLE   =       291.3056  DIHED      =       153.9044
 1-4 NB =         7.3579  1-4 EEL =       966.8454  VDWAALS    =       -66.1665
 EELEC  =      -479.4739  EGB     =      -170.0950  RESTRAINT  =        76.6874
 EAMBER (non-restraint)  =       691.5671
 ------------------------------------------------------------------------------

      R M S  F L U C T U A T I O N S

 NSTEP =    30000   TIME(PS) =      30.000  TEMP(K) =    18.85  PRESS =     0.0
 Etot   =        18.0520  EKtot   =         9.8871  EPtot      =        16.4534
 BOND   =        15.0971  ANGLE   =        10.3279  DIHED      =         4.9712
 1-4 NB =         4.5043  1-4 EEL =         5.4984  VDWAALS    =         1.7939
 EELEC  =         6.2157  EGB     =         2.9502  RESTRAINT  =        86.6982
 EAMBER (non-restraint)  =       -70.2448
 ------------------------------------------------------------------------------
